Circuit: * S:\OneDrive\OneDrive - stud.hs-emden-leer.de\Hochschule\Solarboot HS Emden\MPPT Solar\MPPT_Solar_KiCAD_Rev2.1\sim\OutputReversePolarityProtection\Draft1.asc

Limiting rise time of source v1 to 0.003
Limiting fall time of source v1 to 0.003
WARNING: Less than two connections to node OUT.  This node is used by V1.
.OP point found by inspection.

Date: Tue Feb 22 18:18:41 2022
Total elapsed time: 0.017 seconds.

tnom = 27
temp = 27
method = modified trap
totiter = 9838
traniter = 9838
tranpoints = 4920
accept = 4020
rejected = 900
matrix size = 2
fillins = 0
solver = Normal
Matrix Compiler1: 18 bytes object code size  0.0/0.0/[0.0]
Matrix Compiler2: off  [0.0]/0.0/0.0

