Circuit: * S:\OneDrive\OneDrive - stud.hs-emden-leer.de\Hochschule\Solarboot HS Emden\MPPT Solar\MPPT_Solar_KiCAD_Rev2.1\sim\OutputReversePolarityProtection\OutputReversePolarityProtection.asc

.OP point found by inspection.

Date: Wed Feb 16 18:20:52 2022
Total elapsed time: 0.105 seconds.

tnom = 27
temp = 27
method = trap
totiter = 249
traniter = 0
tranpoints = 0
accept = 0
rejected = 0
matrix size = 7
fillins = 0
solver = Normal
Matrix Compiler1: 312 bytes object code size  0.1/0.0/[0.0]
Matrix Compiler2: off  [0.0]/0.0/0.1

