Circuit: * S:\OneDrive\OneDrive - stud.hs-emden-leer.de\Hochschule\Solarboot HS Emden\MPPT Solar\MPPT_Solar_KiCAD_Rev2.1\sim\OutputReversePolarityProtection\OutputReversePolarityProtectionBackToBack.asc

WARNING: Node NC_02 is floating.

WARNING: Less than two connections to node NC_01.  This node is used by D1.
WARNING: Less than two connections to node NC_02.  This node is used by D1.

Date: Wed Feb 16 18:24:47 2022
Total elapsed time: 0.089 seconds.

tnom = 27
temp = 27
method = trap
totiter = 241
traniter = 0
tranpoints = 0
accept = 0
rejected = 0
matrix size = 18
fillins = 10
solver = Normal
Matrix Compiler1: 1.47 KB object code size  0.2/0.1/[0.1]
Matrix Compiler2: 1.56 KB object code size  0.1/0.1/[0.1]

