Circuit: * S:\OneDrive\OneDrive - stud.hs-emden-leer.de\Hochschule\Solarboot HS Emden\MPPT Solar\MPPT_Solar_KiCAD_Rev2.1\sim\Analog_Supply_Filter.asc


Date: Wed Mar 30 12:15:43 2022
Total elapsed time: 0.009 seconds.

tnom = 27
temp = 27
method = trap
totiter = 0
traniter = 0
tranpoints = 0
accept = 0
rejected = 0
matrix size = 3
fillins = 0
solver = Normal

